24 
O16Si8 
Si    0.0000 0.0000 0.0000 
Si    0.0000 3.5600 3.5600 
Si    3.5600 3.5600 0.0000 
Si    3.5600 0.0000 3.5600 
Si    5.3400 1.7800 5.3400 
Si    1.7800 1.7800 1.7800 
Si    1.7800 5.3400 5.3400 
Si    5.3400 5.3400 1.7800 
O     0.8900 0.8900 0.8900 
O     6.2300 2.6700 4.4500 
O     2.6700 4.4500 6.2300 
O     4.4500 6.2300 2.6700 
O     2.6700 6.2300 4.4500 
O     6.2300 4.4500 2.6700 
O     4.4500 2.6700 6.2300 
O     0.8900 4.4500 4.4500 
O     6.2300 6.2300 0.8900 
O     2.6700 0.8900 2.6700 
O     2.6700 2.6700 0.8900 
O     6.2300 0.8900 6.2300 
O     4.4500 0.8900 4.4500 
O     0.8900 6.2300 6.2300 
O     0.8900 2.6700 2.6700 
O     4.4500 4.4500 0.8900 
VEC1  7.1200 0.0000 0.0000 
VEC2  0.0000 7.1200 0.0000 
VEC3  0.0000 0.0000 7.1200 
