9 
O6Si3 
Si    2.3090 0.0000 0.0000 
Si    -1.1550 2.0000 3.6040 
Si    1.3030 2.2580 1.8020 
O     1.3770 1.1360 0.6440 
O     0.2960 1.7600 2.9600 
O     3.2440 0.6240 4.2470 
O     0.7860 3.6330 1.1580 
O     2.7540 2.4970 2.4460 
O     -1.0810 3.1210 4.7620 
VEC1  4.9160 0.0000 0.0000 
VEC2  -2.4580 4.2574 0.0000 
VEC3  0.0000 0.0000 5.4505 
